# File generated by Flopy version 3.3.4 on 06/17/2022 at 13:28:16.
BEGIN options
END options

BEGIN timing
  TDIS6  tutorial01_mf6.tdis
END timing

BEGIN models
  gwf6  tutorial01_mf6.nam  tutorial01_mf6
END models

BEGIN exchanges
END exchanges

BEGIN solutiongroup  1
  ims6  tutorial01_mf6.ims  tutorial01_mf6
END solutiongroup  1

