# File generated by Flopy version 3.3.4 on 06/17/2022 at 13:28:17.
BEGIN options
  BUDGET  FILEOUT  tutorial01_mf6.cbb
  HEAD  FILEOUT  tutorial01_mf6.hds
END options

BEGIN period  1
  SAVE  HEAD  ALL
  SAVE  BUDGET  ALL
  PRINT  HEAD  LAST
END period  1

