# File generated by Flopy version 3.3.4 on 06/17/2022 at 13:28:16.
BEGIN options
  TIME_UNITS  days
END options

BEGIN dimensions
  NPER  1
END dimensions

BEGIN perioddata
       1.00000000  1       1.00000000
END perioddata

