# File generated by Flopy version 3.3.4 on 06/17/2022 at 13:28:16.
BEGIN options
  COMPLEXITY  simple
END options

BEGIN linear
  LINEAR_ACCELERATION  bicgstab
END linear

