# File generated by Flopy version 3.3.4 on 06/17/2022 at 13:28:17.
BEGIN options
END options

BEGIN griddata
  icelltype
    CONSTANT  1
  k
    CONSTANT       1.00000000
END griddata

