# File generated by Flopy version 3.3.4 on 06/17/2022 at 13:28:16.
BEGIN options
  SAVE_FLOWS
  NEWTON  UNDER_RELAXATION
END options

BEGIN packages
  DIS6  tutorial01_mf6.dis  dis
  IC6  tutorial01_mf6.ic  ic
  NPF6  tutorial01_mf6.npf  npf
  CHD6  tutorial01_mf6.chd  chd_0
  WEL6  tutorial01_mf6.wel  wel_0
  OC6  tutorial01_mf6.oc  oc
END packages

