# File generated by Flopy version 3.3.4 on 06/17/2022 at 13:28:17.
BEGIN options
END options

BEGIN dimensions
  MAXBOUND  1
END dimensions

BEGIN period  1
  10 26 26   -1000.00000000
END period  1

